// Generated for: spectre
// Generated on: Mar 19 11:04:03 2023
// Design library name: MyFirstLib
// Design cell name: OpAmpV1.4.2
// Design view name: schematic
simulator lang=spectre
global 0
parameters K=1.35 W6=1.13u W11=1u VN2=900m S=2 VN=900m VP=300m W8=4u F=1k \
    W12=4.5u W2=600n W1=6u A=0.01 L=245n W10=W8 W7=W6
include "/ubc/ece/data/cmc2/kits/GPDK45/gpdk045_v_6_0/gpdk045/../models/spectre/gpdk045.scs" section=mc

// Library name: MyFirstLib
// Cell name: OpAmpV1.4.2
// View name: schematic
NM27 (net12 net20 0 0) g45n1svt w=(W2) l=L nf=1 as=(((W2) / (1)) < 119.5n) ? ((((50n > (((60n) - 0) + 60n) ? 50n : (((60n) - 0) + 60n)) * 120n) + (((W2) / (1)) * 50n)) + (floor(((1) - 1) / 2.0) * (((((60n) - 0) + 60n) * 120n) + (((W2) / (1)) * 100n))) + ((((1) / 2) - floor((1) / 2) == 0) ? (((50n > (((60n) - 0) + 60n) ? 50n : (((60n) - 0) + 60n)) * 120n) + (((W2) / (1)) * 50n)) : 0)) / 1 : (((100n > (((60n) - 0) + 80n) ? 100n : (((60n) - 0) + 80n)) * ((W2) / (1))) + (floor(((1) - 1) / 2.0) * ((60n > (((60n) - 0) + 50n) ? 60n : (((60n) - 0) + 50n)) * ((W2) / (1)))) + ((((1) / 2) - floor((1) / 2) == 0) ? ((100n > (((60n) - 0) + 80n) ? 100n : (((60n) - 0) + 80n)) * ((W2) / (1))) : 0)) / 1 \
         ad=(((W2) / (1)) < 119.5n) ? ((floor((1) / 2.0) * (((((60n) - 0) + 60n) * 120n) + (((W2) / (1)) * 100n))) + ((((1) / 2) - floor((1) / 2) != 0) ? (((50n > (((60n) - 0) + 60n) ? 50n : (((60n) - 0) + 60n)) * 120n) + (((W2) / (1)) * 50n)) : 0)) / 1 : ((floor((1) / 2.0) * ((60n > (((60n) - 0) + 50n) ? 60n : (((60n) - 0) + 50n)) * ((W2) / (1)))) + ((((1) / 2) - floor((1) / 2) != 0) ? ((100n > (((60n) - 0) + 80n) ? 100n : (((60n) - 0) + 80n)) * ((W2) / (1))) : 0)) / 1 \
         ps=(((W2) / (1)) < 119.5n) ? (((2 * (50n > (((60n) - 0) + 60n) ? 50n : (((60n) - 0) + 60n))) + 340n) + (floor(((1) - 1) / 2.0) * ((2 * (((60n) - 0) + 60n)) + 440n)) + ((((1) / 2) - floor((1) / 2) == 0) ? ((2 * (50n > (((60n) - 0) + 60n) ? 50n : (((60n) - 0) + 60n))) + 340n) : 0)) / 1 : (((2 * (100n > (((60n) - 0) + 80n) ? 100n : (((60n) - 0) + 80n))) + (2 * ((W2) / (1)))) + (floor(((1) - 1) / 2.0) * ((2 * (60n > (((60n) - 0) + 50n) ? 60n : (((60n) - 0) + 50n))) + (2 * ((W2) / (1))))) + ((((1) / 2) - floor((1) / 2) == 0) ? ((2 * (100n > (((60n) - 0) + 80n) ? 100n : (((60n) - 0) + 80n))) + (2 * ((W2) / (1)))) : 0)) / 1 \
         pd=(((W2) / (1)) < 119.5n) ? ((floor((1) / 2.0) * ((2 * (((60n) - 0) + 60n)) + 440n)) + ((((1) / 2) - floor((1) / 2) != 0) ? ((2 * (50n > (((60n) - 0) + 60n) ? 50n : (((60n) - 0) + 60n))) + 340n) : 0)) / 1 : ((floor((1) / 2.0) * ((2 * (60n > (((60n) - 0) + 50n) ? 60n : (((60n) - 0) + 50n))) + (2 * ((W2) / (1))))) + ((((1) / 2) - floor((1) / 2) != 0) ? ((2 * (100n > (((60n) - 0) + 80n) ? 100n : (((60n) - 0) + 80n))) + (2 * ((W2) / (1)))) : 0)) / 1 \
         nrd=(((W2) / (1)) < 119.5n) ? ((floor((1) / 2.0) * (((((60n) - 0) + 60n) * 120n) + (((W2) / (1)) * 100n))) + ((((1) / 2) - floor((1) / 2) != 0) ? (((50n > (((60n) - 0) + 60n) ? 50n : (((60n) - 0) + 60n)) * 120n) + (((W2) / (1)) * 50n)) : 0)) / 1 : ((floor((1) / 2.0) * ((60n > (((60n) - 0) + 50n) ? 60n : (((60n) - 0) + 50n)) * ((W2) / (1)))) + ((((1) / 2) - floor((1) / 2) != 0) ? ((100n > (((60n) - 0) + 80n) ? 100n : (((60n) - 0) + 80n)) * ((W2) / (1))) : 0)) / 1 / (((W2) / (1)) * (1) * ((W2) / (1)) * (1)) \
         nrs=(((W2) / (1)) < 119.5n) ? ((((50n > (((60n) - 0) + 60n) ? 50n : (((60n) - 0) + 60n)) * 120n) + (((W2) / (1)) * 50n)) + (floor(((1) - 1) / 2.0) * (((((60n) - 0) + 60n) * 120n) + (((W2) / (1)) * 100n))) + ((((1) / 2) - floor((1) / 2) == 0) ? (((50n > (((60n) - 0) + 60n) ? 50n : (((60n) - 0) + 60n)) * 120n) + (((W2) / (1)) * 50n)) : 0)) / 1 : (((100n > (((60n) - 0) + 80n) ? 100n : (((60n) - 0) + 80n)) * ((W2) / (1))) + (floor(((1) - 1) / 2.0) * ((60n > (((60n) - 0) + 50n) ? 60n : (((60n) - 0) + 50n)) * ((W2) / (1)))) + ((((1) / 2) - floor((1) / 2) == 0) ? ((100n > (((60n) - 0) + 80n) ? 100n : (((60n) - 0) + 80n)) * ((W2) / (1))) : 0)) / 1 / (((W2) / (1)) * (1) * ((W2) / (1)) * (1)) \
         sa=(((W2) / (1)) < 119.5n) ? (50n > (((60n) - 0) + 60n) ? 50n : (((60n) - 0) + 60n)) + 5e-08 : (100n > (((60n) - 0) + 80n) ? 100n : (((60n) - 0) + 80n)) \
         sb=(((W2) / (1)) < 119.5n) ? (50n > (((60n) - 0) + 60n) ? 50n : (((60n) - 0) + 60n)) + 5e-08 : (100n > (((60n) - 0) + 80n) ? 100n : (((60n) - 0) + 80n)) \
         sd=(((W2) / (1)) < 119.5n) ? (((60n) - 0) + 60n) + (2*5e-08) : (60n > (((60n) - 0) + 50n) ? 60n : (((60n) - 0) + 50n)) \
         sca=(( ((W2) / (1)) * ( (((1u) * (1u) / ((((W2) / (1)) < 119.5n) ? (50n > (((60n) - 0) + 60n) ? 50n : (((60n) - 0) + 60n)) + 5e-08 : (100n > (((60n) - 0) + 80n) ? 100n : (((60n) - 0) + 80n))+60n)) - ((1u) * (1u) / (((((W2) / (1)) < 119.5n) ? (50n > (((60n) - 0) + 60n) ? 50n : (((60n) - 0) + 60n)) + 5e-08 : (100n > (((60n) - 0) + 80n) ? 100n : (((60n) - 0) + 80n))+60n)+L))) + ((1u) * (1u) / ((((W2) / (1)) < 119.5n) ? (50n > (((60n) - 0) + 60n) ? 50n : (((60n) - 0) + 60n)) + 5e-08 : (100n > (((60n) - 0) + 80n) ? 100n : (((60n) - 0) + 80n))+60n)) - ((1u) * (1u)/ (((((W2) / (1)) < 119.5n) ? (50n > (((60n) - 0) + 60n) ? 50n : (((60n) - 0) + 60n)) + 5e-08 : (100n > (((60n) - 0) + 80n) ? 100n : (((60n) - 0) + 80n))+60n)+L)))) + ( L * ( (((1u) * (1u) / (60n)) - ((1u) * (1u) / ((60n)+((W2) / (1))))) + ((1u) * (1u) / (60n)) - ((1u) * (1u)/ ((60n)+((W2) / (1))))))) / (((W2) / (1)) * L) \
         scb=((((W2) / (1)) * ((((((W2) / (1)) < 119.5n) ? (50n > (((60n) - 0) + 60n) ? 50n : (((60n) - 0) + 60n)) + 5e-08 : (100n > (((60n) - 0) + 80n) ? 100n : (((60n) - 0) + 80n))+60n)/10 + (1u)/100)*exp(-10 * ((((W2) / (1)) < 119.5n) ? (50n > (((60n) - 0) + 60n) ? 50n : (((60n) - 0) + 60n)) + 5e-08 : (100n > (((60n) - 0) + 80n) ? 100n : (((60n) - 0) + 80n))+60n) / (1u)) - ((((((W2) / (1)) < 119.5n) ? (50n > (((60n) - 0) + 60n) ? 50n : (((60n) - 0) + 60n)) + 5e-08 : (100n > (((60n) - 0) + 80n) ? 100n : (((60n) - 0) + 80n))+60n)+L)/10 + (1u)/100)*exp(-10 * (((((W2) / (1)) < 119.5n) ? (50n > (((60n) - 0) + 60n) ? 50n : (((60n) - 0) + 60n)) + 5e-08 : (100n > (((60n) - 0) + 80n) ? 100n : (((60n) - 0) + 80n))+60n)+L) / (1u)) + (((((W2) / (1)) < 119.5n) ? (50n > (((60n) - 0) + 60n) ? 50n : (((60n) - 0) + 60n)) + 5e-08 : (100n > (((60n) - 0) + 80n) ? 100n : (((60n) - 0) + 80n))+60n)/10 + (1u)/100)*exp(-10 * ((((W2) / (1)) < 119.5n) ? (50n > (((60n) - 0) + 60n) ? 50n : (((60n) - 0) + 60n)) + 5e-08 : (100n > (((60n) - 0) + 80n) ? 100n : (((60n) - 0) + 80n))+60n) / (1u)) - ((((((W2) / (1)) < 119.5n) ? (50n > (((60n) - 0) + 60n) ? 50n : (((60n) - 0) + 60n)) + 5e-08 : (100n > (((60n) - 0) + 80n) ? 100n : (((60n) - 0) + 80n))+60n)+L)/10 + (1u)/100)*exp(-10 * (((((W2) / (1)) < 119.5n) ? (50n > (((60n) - 0) + 60n) ? 50n : (((60n) - 0) + 60n)) + 5e-08 : (100n > (((60n) - 0) + 80n) ? 100n : (((60n) - 0) + 80n))+60n)+L) / (1u)))) + (L * (((60n)/10 + (1u)/100)*exp(-10 * (60n) / (1u)) - (((60n)+((W2) / (1)))/10 + (1u)/100)*exp(-10 * ((60n)+((W2) / (1))) / (1u)) + ((60n)/10 + (1u)/100)*exp(-10 * (60n) / (1u)) - (((60n)+((W2) / (1)))/10 + (1u)/100)*exp(-10 * ((60n)+((W2) / (1))) / (1u))))) / (((W2) / (1)) * L) \
         scc=((((W2) / (1)) * ((((((W2) / (1)) < 119.5n) ? (50n > (((60n) - 0) + 60n) ? 50n : (((60n) - 0) + 60n)) + 5e-08 : (100n > (((60n) - 0) + 80n) ? 100n : (((60n) - 0) + 80n))+60n)/20 + (1u)/400)*exp(-20 * ((((W2) / (1)) < 119.5n) ? (50n > (((60n) - 0) + 60n) ? 50n : (((60n) - 0) + 60n)) + 5e-08 : (100n > (((60n) - 0) + 80n) ? 100n : (((60n) - 0) + 80n))+60n) / (1u)) - ((((((W2) / (1)) < 119.5n) ? (50n > (((60n) - 0) + 60n) ? 50n : (((60n) - 0) + 60n)) + 5e-08 : (100n > (((60n) - 0) + 80n) ? 100n : (((60n) - 0) + 80n))+60n)+L)/20 + (1u)/400)*exp(-20 * (((((W2) / (1)) < 119.5n) ? (50n > (((60n) - 0) + 60n) ? 50n : (((60n) - 0) + 60n)) + 5e-08 : (100n > (((60n) - 0) + 80n) ? 100n : (((60n) - 0) + 80n))+60n)+L) / (1u)) + (((((W2) / (1)) < 119.5n) ? (50n > (((60n) - 0) + 60n) ? 50n : (((60n) - 0) + 60n)) + 5e-08 : (100n > (((60n) - 0) + 80n) ? 100n : (((60n) - 0) + 80n))+60n)/20 + (1u)/400)*exp(-20 * ((((W2) / (1)) < 119.5n) ? (50n > (((60n) - 0) + 60n) ? 50n : (((60n) - 0) + 60n)) + 5e-08 : (100n > (((60n) - 0) + 80n) ? 100n : (((60n) - 0) + 80n))+60n) / (1u)) - ((((((W2) / (1)) < 119.5n) ? (50n > (((60n) - 0) + 60n) ? 50n : (((60n) - 0) + 60n)) + 5e-08 : (100n > (((60n) - 0) + 80n) ? 100n : (((60n) - 0) + 80n))+60n)+L)/20 + (1u)/400)*exp(-20 * (((((W2) / (1)) < 119.5n) ? (50n > (((60n) - 0) + 60n) ? 50n : (((60n) - 0) + 60n)) + 5e-08 : (100n > (((60n) - 0) + 80n) ? 100n : (((60n) - 0) + 80n))+60n)+L) / (1u)))) + (L * (((60n)/20 + (1u)/400)*exp(-20 * (60n) / (1u)) - (((60n)+((W2) / (1)))/20 + (1u)/400)*exp(-20 * ((60n)+((W2) / (1))) / (1u)) + ((60n)/20 + (1u)/400)*exp(-20 * (60n) / (1u)) - (((60n)+((W2) / (1)))/20 + (1u)/400)*exp(-20 * ((60n)+((W2) / (1))) / (1u))))) / (((W2) / (1)) * L) \
         m=(1)
NM24 (Vn2 Vn2 net12 net12) g45n1svt w=(W11) l=L nf=1 as=(((W11) / (1)) < 119.5n) ? ((((50n > (((60n) - 0) + 60n) ? 50n : (((60n) - 0) + 60n)) * 120n) + (((W11) / (1)) * 50n)) + (floor(((1) - 1) / 2.0) * (((((60n) - 0) + 60n) * 120n) + (((W11) / (1)) * 100n))) + ((((1) / 2) - floor((1) / 2) == 0) ? (((50n > (((60n) - 0) + 60n) ? 50n : (((60n) - 0) + 60n)) * 120n) + (((W11) / (1)) * 50n)) : 0)) / 1 : (((100n > (((60n) - 0) + 80n) ? 100n : (((60n) - 0) + 80n)) * ((W11) / (1))) + (floor(((1) - 1) / 2.0) * ((60n > (((60n) - 0) + 50n) ? 60n : (((60n) - 0) + 50n)) * ((W11) / (1)))) + ((((1) / 2) - floor((1) / 2) == 0) ? ((100n > (((60n) - 0) + 80n) ? 100n : (((60n) - 0) + 80n)) * ((W11) / (1))) : 0)) / 1 \
         ad=(((W11) / (1)) < 119.5n) ? ((floor((1) / 2.0) * (((((60n) - 0) + 60n) * 120n) + (((W11) / (1)) * 100n))) + ((((1) / 2) - floor((1) / 2) != 0) ? (((50n > (((60n) - 0) + 60n) ? 50n : (((60n) - 0) + 60n)) * 120n) + (((W11) / (1)) * 50n)) : 0)) / 1 : ((floor((1) / 2.0) * ((60n > (((60n) - 0) + 50n) ? 60n : (((60n) - 0) + 50n)) * ((W11) / (1)))) + ((((1) / 2) - floor((1) / 2) != 0) ? ((100n > (((60n) - 0) + 80n) ? 100n : (((60n) - 0) + 80n)) * ((W11) / (1))) : 0)) / 1 \
         ps=(((W11) / (1)) < 119.5n) ? (((2 * (50n > (((60n) - 0) + 60n) ? 50n : (((60n) - 0) + 60n))) + 340n) + (floor(((1) - 1) / 2.0) * ((2 * (((60n) - 0) + 60n)) + 440n)) + ((((1) / 2) - floor((1) / 2) == 0) ? ((2 * (50n > (((60n) - 0) + 60n) ? 50n : (((60n) - 0) + 60n))) + 340n) : 0)) / 1 : (((2 * (100n > (((60n) - 0) + 80n) ? 100n : (((60n) - 0) + 80n))) + (2 * ((W11) / (1)))) + (floor(((1) - 1) / 2.0) * ((2 * (60n > (((60n) - 0) + 50n) ? 60n : (((60n) - 0) + 50n))) + (2 * ((W11) / (1))))) + ((((1) / 2) - floor((1) / 2) == 0) ? ((2 * (100n > (((60n) - 0) + 80n) ? 100n : (((60n) - 0) + 80n))) + (2 * ((W11) / (1)))) : 0)) / 1 \
         pd=(((W11) / (1)) < 119.5n) ? ((floor((1) / 2.0) * ((2 * (((60n) - 0) + 60n)) + 440n)) + ((((1) / 2) - floor((1) / 2) != 0) ? ((2 * (50n > (((60n) - 0) + 60n) ? 50n : (((60n) - 0) + 60n))) + 340n) : 0)) / 1 : ((floor((1) / 2.0) * ((2 * (60n > (((60n) - 0) + 50n) ? 60n : (((60n) - 0) + 50n))) + (2 * ((W11) / (1))))) + ((((1) / 2) - floor((1) / 2) != 0) ? ((2 * (100n > (((60n) - 0) + 80n) ? 100n : (((60n) - 0) + 80n))) + (2 * ((W11) / (1)))) : 0)) / 1 \
         nrd=(((W11) / (1)) < 119.5n) ? ((floor((1) / 2.0) * (((((60n) - 0) + 60n) * 120n) + (((W11) / (1)) * 100n))) + ((((1) / 2) - floor((1) / 2) != 0) ? (((50n > (((60n) - 0) + 60n) ? 50n : (((60n) - 0) + 60n)) * 120n) + (((W11) / (1)) * 50n)) : 0)) / 1 : ((floor((1) / 2.0) * ((60n > (((60n) - 0) + 50n) ? 60n : (((60n) - 0) + 50n)) * ((W11) / (1)))) + ((((1) / 2) - floor((1) / 2) != 0) ? ((100n > (((60n) - 0) + 80n) ? 100n : (((60n) - 0) + 80n)) * ((W11) / (1))) : 0)) / 1 / (((W11) / (1)) * (1) * ((W11) / (1)) * (1)) \
         nrs=(((W11) / (1)) < 119.5n) ? ((((50n > (((60n) - 0) + 60n) ? 50n : (((60n) - 0) + 60n)) * 120n) + (((W11) / (1)) * 50n)) + (floor(((1) - 1) / 2.0) * (((((60n) - 0) + 60n) * 120n) + (((W11) / (1)) * 100n))) + ((((1) / 2) - floor((1) / 2) == 0) ? (((50n > (((60n) - 0) + 60n) ? 50n : (((60n) - 0) + 60n)) * 120n) + (((W11) / (1)) * 50n)) : 0)) / 1 : (((100n > (((60n) - 0) + 80n) ? 100n : (((60n) - 0) + 80n)) * ((W11) / (1))) + (floor(((1) - 1) / 2.0) * ((60n > (((60n) - 0) + 50n) ? 60n : (((60n) - 0) + 50n)) * ((W11) / (1)))) + ((((1) / 2) - floor((1) / 2) == 0) ? ((100n > (((60n) - 0) + 80n) ? 100n : (((60n) - 0) + 80n)) * ((W11) / (1))) : 0)) / 1 / (((W11) / (1)) * (1) * ((W11) / (1)) * (1)) \
         sa=(((W11) / (1)) < 119.5n) ? (50n > (((60n) - 0) + 60n) ? 50n : (((60n) - 0) + 60n)) + 5e-08 : (100n > (((60n) - 0) + 80n) ? 100n : (((60n) - 0) + 80n)) \
         sb=(((W11) / (1)) < 119.5n) ? (50n > (((60n) - 0) + 60n) ? 50n : (((60n) - 0) + 60n)) + 5e-08 : (100n > (((60n) - 0) + 80n) ? 100n : (((60n) - 0) + 80n)) \
         sd=(((W11) / (1)) < 119.5n) ? (((60n) - 0) + 60n) + (2*5e-08) : (60n > (((60n) - 0) + 50n) ? 60n : (((60n) - 0) + 50n)) \
         sca=(( ((W11) / (1)) * ( (((1u) * (1u) / ((((W11) / (1)) < 119.5n) ? (50n > (((60n) - 0) + 60n) ? 50n : (((60n) - 0) + 60n)) + 5e-08 : (100n > (((60n) - 0) + 80n) ? 100n : (((60n) - 0) + 80n))+60n)) - ((1u) * (1u) / (((((W11) / (1)) < 119.5n) ? (50n > (((60n) - 0) + 60n) ? 50n : (((60n) - 0) + 60n)) + 5e-08 : (100n > (((60n) - 0) + 80n) ? 100n : (((60n) - 0) + 80n))+60n)+L))) + ((1u) * (1u) / ((((W11) / (1)) < 119.5n) ? (50n > (((60n) - 0) + 60n) ? 50n : (((60n) - 0) + 60n)) + 5e-08 : (100n > (((60n) - 0) + 80n) ? 100n : (((60n) - 0) + 80n))+60n)) - ((1u) * (1u)/ (((((W11) / (1)) < 119.5n) ? (50n > (((60n) - 0) + 60n) ? 50n : (((60n) - 0) + 60n)) + 5e-08 : (100n > (((60n) - 0) + 80n) ? 100n : (((60n) - 0) + 80n))+60n)+L)))) + ( L * ( (((1u) * (1u) / (60n)) - ((1u) * (1u) / ((60n)+((W11) / (1))))) + ((1u) * (1u) / (60n)) - ((1u) * (1u)/ ((60n)+((W11) / (1))))))) / (((W11) / (1)) * L) \
         scb=((((W11) / (1)) * ((((((W11) / (1)) < 119.5n) ? (50n > (((60n) - 0) + 60n) ? 50n : (((60n) - 0) + 60n)) + 5e-08 : (100n > (((60n) - 0) + 80n) ? 100n : (((60n) - 0) + 80n))+60n)/10 + (1u)/100)*exp(-10 * ((((W11) / (1)) < 119.5n) ? (50n > (((60n) - 0) + 60n) ? 50n : (((60n) - 0) + 60n)) + 5e-08 : (100n > (((60n) - 0) + 80n) ? 100n : (((60n) - 0) + 80n))+60n) / (1u)) - ((((((W11) / (1)) < 119.5n) ? (50n > (((60n) - 0) + 60n) ? 50n : (((60n) - 0) + 60n)) + 5e-08 : (100n > (((60n) - 0) + 80n) ? 100n : (((60n) - 0) + 80n))+60n)+L)/10 + (1u)/100)*exp(-10 * (((((W11) / (1)) < 119.5n) ? (50n > (((60n) - 0) + 60n) ? 50n : (((60n) - 0) + 60n)) + 5e-08 : (100n > (((60n) - 0) + 80n) ? 100n : (((60n) - 0) + 80n))+60n)+L) / (1u)) + (((((W11) / (1)) < 119.5n) ? (50n > (((60n) - 0) + 60n) ? 50n : (((60n) - 0) + 60n)) + 5e-08 : (100n > (((60n) - 0) + 80n) ? 100n : (((60n) - 0) + 80n))+60n)/10 + (1u)/100)*exp(-10 * ((((W11) / (1)) < 119.5n) ? (50n > (((60n) - 0) + 60n) ? 50n : (((60n) - 0) + 60n)) + 5e-08 : (100n > (((60n) - 0) + 80n) ? 100n : (((60n) - 0) + 80n))+60n) / (1u)) - ((((((W11) / (1)) < 119.5n) ? (50n > (((60n) - 0) + 60n) ? 50n : (((60n) - 0) + 60n)) + 5e-08 : (100n > (((60n) - 0) + 80n) ? 100n : (((60n) - 0) + 80n))+60n)+L)/10 + (1u)/100)*exp(-10 * (((((W11) / (1)) < 119.5n) ? (50n > (((60n) - 0) + 60n) ? 50n : (((60n) - 0) + 60n)) + 5e-08 : (100n > (((60n) - 0) + 80n) ? 100n : (((60n) - 0) + 80n))+60n)+L) / (1u)))) + (L * (((60n)/10 + (1u)/100)*exp(-10 * (60n) / (1u)) - (((60n)+((W11) / (1)))/10 + (1u)/100)*exp(-10 * ((60n)+((W11) / (1))) / (1u)) + ((60n)/10 + (1u)/100)*exp(-10 * (60n) / (1u)) - (((60n)+((W11) / (1)))/10 + (1u)/100)*exp(-10 * ((60n)+((W11) / (1))) / (1u))))) / (((W11) / (1)) * L) \
         scc=((((W11) / (1)) * ((((((W11) / (1)) < 119.5n) ? (50n > (((60n) - 0) + 60n) ? 50n : (((60n) - 0) + 60n)) + 5e-08 : (100n > (((60n) - 0) + 80n) ? 100n : (((60n) - 0) + 80n))+60n)/20 + (1u)/400)*exp(-20 * ((((W11) / (1)) < 119.5n) ? (50n > (((60n) - 0) + 60n) ? 50n : (((60n) - 0) + 60n)) + 5e-08 : (100n > (((60n) - 0) + 80n) ? 100n : (((60n) - 0) + 80n))+60n) / (1u)) - ((((((W11) / (1)) < 119.5n) ? (50n > (((60n) - 0) + 60n) ? 50n : (((60n) - 0) + 60n)) + 5e-08 : (100n > (((60n) - 0) + 80n) ? 100n : (((60n) - 0) + 80n))+60n)+L)/20 + (1u)/400)*exp(-20 * (((((W11) / (1)) < 119.5n) ? (50n > (((60n) - 0) + 60n) ? 50n : (((60n) - 0) + 60n)) + 5e-08 : (100n > (((60n) - 0) + 80n) ? 100n : (((60n) - 0) + 80n))+60n)+L) / (1u)) + (((((W11) / (1)) < 119.5n) ? (50n > (((60n) - 0) + 60n) ? 50n : (((60n) - 0) + 60n)) + 5e-08 : (100n > (((60n) - 0) + 80n) ? 100n : (((60n) - 0) + 80n))+60n)/20 + (1u)/400)*exp(-20 * ((((W11) / (1)) < 119.5n) ? (50n > (((60n) - 0) + 60n) ? 50n : (((60n) - 0) + 60n)) + 5e-08 : (100n > (((60n) - 0) + 80n) ? 100n : (((60n) - 0) + 80n))+60n) / (1u)) - ((((((W11) / (1)) < 119.5n) ? (50n > (((60n) - 0) + 60n) ? 50n : (((60n) - 0) + 60n)) + 5e-08 : (100n > (((60n) - 0) + 80n) ? 100n : (((60n) - 0) + 80n))+60n)+L)/20 + (1u)/400)*exp(-20 * (((((W11) / (1)) < 119.5n) ? (50n > (((60n) - 0) + 60n) ? 50n : (((60n) - 0) + 60n)) + 5e-08 : (100n > (((60n) - 0) + 80n) ? 100n : (((60n) - 0) + 80n))+60n)+L) / (1u)))) + (L * (((60n)/20 + (1u)/400)*exp(-20 * (60n) / (1u)) - (((60n)+((W11) / (1)))/20 + (1u)/400)*exp(-20 * ((60n)+((W11) / (1))) / (1u)) + ((60n)/20 + (1u)/400)*exp(-20 * (60n) / (1u)) - (((60n)+((W11) / (1)))/20 + (1u)/400)*exp(-20 * ((60n)+((W11) / (1))) / (1u))))) / (((W11) / (1)) * L) \
         m=(1)
NM35 (Vp net20 0 0) g45n1svt w=(W2) l=L nf=1 as=(((W2) / (1)) < 119.5n) ? ((((50n > (((60n) - 0) + 60n) ? 50n : (((60n) - 0) + 60n)) * 120n) + (((W2) / (1)) * 50n)) + (floor(((1) - 1) / 2.0) * (((((60n) - 0) + 60n) * 120n) + (((W2) / (1)) * 100n))) + ((((1) / 2) - floor((1) / 2) == 0) ? (((50n > (((60n) - 0) + 60n) ? 50n : (((60n) - 0) + 60n)) * 120n) + (((W2) / (1)) * 50n)) : 0)) / 1 : (((100n > (((60n) - 0) + 80n) ? 100n : (((60n) - 0) + 80n)) * ((W2) / (1))) + (floor(((1) - 1) / 2.0) * ((60n > (((60n) - 0) + 50n) ? 60n : (((60n) - 0) + 50n)) * ((W2) / (1)))) + ((((1) / 2) - floor((1) / 2) == 0) ? ((100n > (((60n) - 0) + 80n) ? 100n : (((60n) - 0) + 80n)) * ((W2) / (1))) : 0)) / 1 \
         ad=(((W2) / (1)) < 119.5n) ? ((floor((1) / 2.0) * (((((60n) - 0) + 60n) * 120n) + (((W2) / (1)) * 100n))) + ((((1) / 2) - floor((1) / 2) != 0) ? (((50n > (((60n) - 0) + 60n) ? 50n : (((60n) - 0) + 60n)) * 120n) + (((W2) / (1)) * 50n)) : 0)) / 1 : ((floor((1) / 2.0) * ((60n > (((60n) - 0) + 50n) ? 60n : (((60n) - 0) + 50n)) * ((W2) / (1)))) + ((((1) / 2) - floor((1) / 2) != 0) ? ((100n > (((60n) - 0) + 80n) ? 100n : (((60n) - 0) + 80n)) * ((W2) / (1))) : 0)) / 1 \
         ps=(((W2) / (1)) < 119.5n) ? (((2 * (50n > (((60n) - 0) + 60n) ? 50n : (((60n) - 0) + 60n))) + 340n) + (floor(((1) - 1) / 2.0) * ((2 * (((60n) - 0) + 60n)) + 440n)) + ((((1) / 2) - floor((1) / 2) == 0) ? ((2 * (50n > (((60n) - 0) + 60n) ? 50n : (((60n) - 0) + 60n))) + 340n) : 0)) / 1 : (((2 * (100n > (((60n) - 0) + 80n) ? 100n : (((60n) - 0) + 80n))) + (2 * ((W2) / (1)))) + (floor(((1) - 1) / 2.0) * ((2 * (60n > (((60n) - 0) + 50n) ? 60n : (((60n) - 0) + 50n))) + (2 * ((W2) / (1))))) + ((((1) / 2) - floor((1) / 2) == 0) ? ((2 * (100n > (((60n) - 0) + 80n) ? 100n : (((60n) - 0) + 80n))) + (2 * ((W2) / (1)))) : 0)) / 1 \
         pd=(((W2) / (1)) < 119.5n) ? ((floor((1) / 2.0) * ((2 * (((60n) - 0) + 60n)) + 440n)) + ((((1) / 2) - floor((1) / 2) != 0) ? ((2 * (50n > (((60n) - 0) + 60n) ? 50n : (((60n) - 0) + 60n))) + 340n) : 0)) / 1 : ((floor((1) / 2.0) * ((2 * (60n > (((60n) - 0) + 50n) ? 60n : (((60n) - 0) + 50n))) + (2 * ((W2) / (1))))) + ((((1) / 2) - floor((1) / 2) != 0) ? ((2 * (100n > (((60n) - 0) + 80n) ? 100n : (((60n) - 0) + 80n))) + (2 * ((W2) / (1)))) : 0)) / 1 \
         nrd=(((W2) / (1)) < 119.5n) ? ((floor((1) / 2.0) * (((((60n) - 0) + 60n) * 120n) + (((W2) / (1)) * 100n))) + ((((1) / 2) - floor((1) / 2) != 0) ? (((50n > (((60n) - 0) + 60n) ? 50n : (((60n) - 0) + 60n)) * 120n) + (((W2) / (1)) * 50n)) : 0)) / 1 : ((floor((1) / 2.0) * ((60n > (((60n) - 0) + 50n) ? 60n : (((60n) - 0) + 50n)) * ((W2) / (1)))) + ((((1) / 2) - floor((1) / 2) != 0) ? ((100n > (((60n) - 0) + 80n) ? 100n : (((60n) - 0) + 80n)) * ((W2) / (1))) : 0)) / 1 / (((W2) / (1)) * (1) * ((W2) / (1)) * (1)) \
         nrs=(((W2) / (1)) < 119.5n) ? ((((50n > (((60n) - 0) + 60n) ? 50n : (((60n) - 0) + 60n)) * 120n) + (((W2) / (1)) * 50n)) + (floor(((1) - 1) / 2.0) * (((((60n) - 0) + 60n) * 120n) + (((W2) / (1)) * 100n))) + ((((1) / 2) - floor((1) / 2) == 0) ? (((50n > (((60n) - 0) + 60n) ? 50n : (((60n) - 0) + 60n)) * 120n) + (((W2) / (1)) * 50n)) : 0)) / 1 : (((100n > (((60n) - 0) + 80n) ? 100n : (((60n) - 0) + 80n)) * ((W2) / (1))) + (floor(((1) - 1) / 2.0) * ((60n > (((60n) - 0) + 50n) ? 60n : (((60n) - 0) + 50n)) * ((W2) / (1)))) + ((((1) / 2) - floor((1) / 2) == 0) ? ((100n > (((60n) - 0) + 80n) ? 100n : (((60n) - 0) + 80n)) * ((W2) / (1))) : 0)) / 1 / (((W2) / (1)) * (1) * ((W2) / (1)) * (1)) \
         sa=(((W2) / (1)) < 119.5n) ? (50n > (((60n) - 0) + 60n) ? 50n : (((60n) - 0) + 60n)) + 5e-08 : (100n > (((60n) - 0) + 80n) ? 100n : (((60n) - 0) + 80n)) \
         sb=(((W2) / (1)) < 119.5n) ? (50n > (((60n) - 0) + 60n) ? 50n : (((60n) - 0) + 60n)) + 5e-08 : (100n > (((60n) - 0) + 80n) ? 100n : (((60n) - 0) + 80n)) \
         sd=(((W2) / (1)) < 119.5n) ? (((60n) - 0) + 60n) + (2*5e-08) : (60n > (((60n) - 0) + 50n) ? 60n : (((60n) - 0) + 50n)) \
         sca=(( ((W2) / (1)) * ( (((1u) * (1u) / ((((W2) / (1)) < 119.5n) ? (50n > (((60n) - 0) + 60n) ? 50n : (((60n) - 0) + 60n)) + 5e-08 : (100n > (((60n) - 0) + 80n) ? 100n : (((60n) - 0) + 80n))+60n)) - ((1u) * (1u) / (((((W2) / (1)) < 119.5n) ? (50n > (((60n) - 0) + 60n) ? 50n : (((60n) - 0) + 60n)) + 5e-08 : (100n > (((60n) - 0) + 80n) ? 100n : (((60n) - 0) + 80n))+60n)+L))) + ((1u) * (1u) / ((((W2) / (1)) < 119.5n) ? (50n > (((60n) - 0) + 60n) ? 50n : (((60n) - 0) + 60n)) + 5e-08 : (100n > (((60n) - 0) + 80n) ? 100n : (((60n) - 0) + 80n))+60n)) - ((1u) * (1u)/ (((((W2) / (1)) < 119.5n) ? (50n > (((60n) - 0) + 60n) ? 50n : (((60n) - 0) + 60n)) + 5e-08 : (100n > (((60n) - 0) + 80n) ? 100n : (((60n) - 0) + 80n))+60n)+L)))) + ( L * ( (((1u) * (1u) / (60n)) - ((1u) * (1u) / ((60n)+((W2) / (1))))) + ((1u) * (1u) / (60n)) - ((1u) * (1u)/ ((60n)+((W2) / (1))))))) / (((W2) / (1)) * L) \
         scb=((((W2) / (1)) * ((((((W2) / (1)) < 119.5n) ? (50n > (((60n) - 0) + 60n) ? 50n : (((60n) - 0) + 60n)) + 5e-08 : (100n > (((60n) - 0) + 80n) ? 100n : (((60n) - 0) + 80n))+60n)/10 + (1u)/100)*exp(-10 * ((((W2) / (1)) < 119.5n) ? (50n > (((60n) - 0) + 60n) ? 50n : (((60n) - 0) + 60n)) + 5e-08 : (100n > (((60n) - 0) + 80n) ? 100n : (((60n) - 0) + 80n))+60n) / (1u)) - ((((((W2) / (1)) < 119.5n) ? (50n > (((60n) - 0) + 60n) ? 50n : (((60n) - 0) + 60n)) + 5e-08 : (100n > (((60n) - 0) + 80n) ? 100n : (((60n) - 0) + 80n))+60n)+L)/10 + (1u)/100)*exp(-10 * (((((W2) / (1)) < 119.5n) ? (50n > (((60n) - 0) + 60n) ? 50n : (((60n) - 0) + 60n)) + 5e-08 : (100n > (((60n) - 0) + 80n) ? 100n : (((60n) - 0) + 80n))+60n)+L) / (1u)) + (((((W2) / (1)) < 119.5n) ? (50n > (((60n) - 0) + 60n) ? 50n : (((60n) - 0) + 60n)) + 5e-08 : (100n > (((60n) - 0) + 80n) ? 100n : (((60n) - 0) + 80n))+60n)/10 + (1u)/100)*exp(-10 * ((((W2) / (1)) < 119.5n) ? (50n > (((60n) - 0) + 60n) ? 50n : (((60n) - 0) + 60n)) + 5e-08 : (100n > (((60n) - 0) + 80n) ? 100n : (((60n) - 0) + 80n))+60n) / (1u)) - ((((((W2) / (1)) < 119.5n) ? (50n > (((60n) - 0) + 60n) ? 50n : (((60n) - 0) + 60n)) + 5e-08 : (100n > (((60n) - 0) + 80n) ? 100n : (((60n) - 0) + 80n))+60n)+L)/10 + (1u)/100)*exp(-10 * (((((W2) / (1)) < 119.5n) ? (50n > (((60n) - 0) + 60n) ? 50n : (((60n) - 0) + 60n)) + 5e-08 : (100n > (((60n) - 0) + 80n) ? 100n : (((60n) - 0) + 80n))+60n)+L) / (1u)))) + (L * (((60n)/10 + (1u)/100)*exp(-10 * (60n) / (1u)) - (((60n)+((W2) / (1)))/10 + (1u)/100)*exp(-10 * ((60n)+((W2) / (1))) / (1u)) + ((60n)/10 + (1u)/100)*exp(-10 * (60n) / (1u)) - (((60n)+((W2) / (1)))/10 + (1u)/100)*exp(-10 * ((60n)+((W2) / (1))) / (1u))))) / (((W2) / (1)) * L) \
         scc=((((W2) / (1)) * ((((((W2) / (1)) < 119.5n) ? (50n > (((60n) - 0) + 60n) ? 50n : (((60n) - 0) + 60n)) + 5e-08 : (100n > (((60n) - 0) + 80n) ? 100n : (((60n) - 0) + 80n))+60n)/20 + (1u)/400)*exp(-20 * ((((W2) / (1)) < 119.5n) ? (50n > (((60n) - 0) + 60n) ? 50n : (((60n) - 0) + 60n)) + 5e-08 : (100n > (((60n) - 0) + 80n) ? 100n : (((60n) - 0) + 80n))+60n) / (1u)) - ((((((W2) / (1)) < 119.5n) ? (50n > (((60n) - 0) + 60n) ? 50n : (((60n) - 0) + 60n)) + 5e-08 : (100n > (((60n) - 0) + 80n) ? 100n : (((60n) - 0) + 80n))+60n)+L)/20 + (1u)/400)*exp(-20 * (((((W2) / (1)) < 119.5n) ? (50n > (((60n) - 0) + 60n) ? 50n : (((60n) - 0) + 60n)) + 5e-08 : (100n > (((60n) - 0) + 80n) ? 100n : (((60n) - 0) + 80n))+60n)+L) / (1u)) + (((((W2) / (1)) < 119.5n) ? (50n > (((60n) - 0) + 60n) ? 50n : (((60n) - 0) + 60n)) + 5e-08 : (100n > (((60n) - 0) + 80n) ? 100n : (((60n) - 0) + 80n))+60n)/20 + (1u)/400)*exp(-20 * ((((W2) / (1)) < 119.5n) ? (50n > (((60n) - 0) + 60n) ? 50n : (((60n) - 0) + 60n)) + 5e-08 : (100n > (((60n) - 0) + 80n) ? 100n : (((60n) - 0) + 80n))+60n) / (1u)) - ((((((W2) / (1)) < 119.5n) ? (50n > (((60n) - 0) + 60n) ? 50n : (((60n) - 0) + 60n)) + 5e-08 : (100n > (((60n) - 0) + 80n) ? 100n : (((60n) - 0) + 80n))+60n)+L)/20 + (1u)/400)*exp(-20 * (((((W2) / (1)) < 119.5n) ? (50n > (((60n) - 0) + 60n) ? 50n : (((60n) - 0) + 60n)) + 5e-08 : (100n > (((60n) - 0) + 80n) ? 100n : (((60n) - 0) + 80n))+60n)+L) / (1u)))) + (L * (((60n)/20 + (1u)/400)*exp(-20 * (60n) / (1u)) - (((60n)+((W2) / (1)))/20 + (1u)/400)*exp(-20 * ((60n)+((W2) / (1))) / (1u)) + ((60n)/20 + (1u)/400)*exp(-20 * (60n) / (1u)) - (((60n)+((W2) / (1)))/20 + (1u)/400)*exp(-20 * ((60n)+((W2) / (1))) / (1u))))) / (((W2) / (1)) * L) \
         m=(1)
NM26 (net20 net20 0 0) g45n1svt w=(W2) l=L nf=1 as=(((W2) / (1)) < 119.5n) ? ((((50n > (((60n) - 0) + 60n) ? 50n : (((60n) - 0) + 60n)) * 120n) + (((W2) / (1)) * 50n)) + (floor(((1) - 1) / 2.0) * (((((60n) - 0) + 60n) * 120n) + (((W2) / (1)) * 100n))) + ((((1) / 2) - floor((1) / 2) == 0) ? (((50n > (((60n) - 0) + 60n) ? 50n : (((60n) - 0) + 60n)) * 120n) + (((W2) / (1)) * 50n)) : 0)) / 1 : (((100n > (((60n) - 0) + 80n) ? 100n : (((60n) - 0) + 80n)) * ((W2) / (1))) + (floor(((1) - 1) / 2.0) * ((60n > (((60n) - 0) + 50n) ? 60n : (((60n) - 0) + 50n)) * ((W2) / (1)))) + ((((1) / 2) - floor((1) / 2) == 0) ? ((100n > (((60n) - 0) + 80n) ? 100n : (((60n) - 0) + 80n)) * ((W2) / (1))) : 0)) / 1 \
         ad=(((W2) / (1)) < 119.5n) ? ((floor((1) / 2.0) * (((((60n) - 0) + 60n) * 120n) + (((W2) / (1)) * 100n))) + ((((1) / 2) - floor((1) / 2) != 0) ? (((50n > (((60n) - 0) + 60n) ? 50n : (((60n) - 0) + 60n)) * 120n) + (((W2) / (1)) * 50n)) : 0)) / 1 : ((floor((1) / 2.0) * ((60n > (((60n) - 0) + 50n) ? 60n : (((60n) - 0) + 50n)) * ((W2) / (1)))) + ((((1) / 2) - floor((1) / 2) != 0) ? ((100n > (((60n) - 0) + 80n) ? 100n : (((60n) - 0) + 80n)) * ((W2) / (1))) : 0)) / 1 \
         ps=(((W2) / (1)) < 119.5n) ? (((2 * (50n > (((60n) - 0) + 60n) ? 50n : (((60n) - 0) + 60n))) + 340n) + (floor(((1) - 1) / 2.0) * ((2 * (((60n) - 0) + 60n)) + 440n)) + ((((1) / 2) - floor((1) / 2) == 0) ? ((2 * (50n > (((60n) - 0) + 60n) ? 50n : (((60n) - 0) + 60n))) + 340n) : 0)) / 1 : (((2 * (100n > (((60n) - 0) + 80n) ? 100n : (((60n) - 0) + 80n))) + (2 * ((W2) / (1)))) + (floor(((1) - 1) / 2.0) * ((2 * (60n > (((60n) - 0) + 50n) ? 60n : (((60n) - 0) + 50n))) + (2 * ((W2) / (1))))) + ((((1) / 2) - floor((1) / 2) == 0) ? ((2 * (100n > (((60n) - 0) + 80n) ? 100n : (((60n) - 0) + 80n))) + (2 * ((W2) / (1)))) : 0)) / 1 \
         pd=(((W2) / (1)) < 119.5n) ? ((floor((1) / 2.0) * ((2 * (((60n) - 0) + 60n)) + 440n)) + ((((1) / 2) - floor((1) / 2) != 0) ? ((2 * (50n > (((60n) - 0) + 60n) ? 50n : (((60n) - 0) + 60n))) + 340n) : 0)) / 1 : ((floor((1) / 2.0) * ((2 * (60n > (((60n) - 0) + 50n) ? 60n : (((60n) - 0) + 50n))) + (2 * ((W2) / (1))))) + ((((1) / 2) - floor((1) / 2) != 0) ? ((2 * (100n > (((60n) - 0) + 80n) ? 100n : (((60n) - 0) + 80n))) + (2 * ((W2) / (1)))) : 0)) / 1 \
         nrd=(((W2) / (1)) < 119.5n) ? ((floor((1) / 2.0) * (((((60n) - 0) + 60n) * 120n) + (((W2) / (1)) * 100n))) + ((((1) / 2) - floor((1) / 2) != 0) ? (((50n > (((60n) - 0) + 60n) ? 50n : (((60n) - 0) + 60n)) * 120n) + (((W2) / (1)) * 50n)) : 0)) / 1 : ((floor((1) / 2.0) * ((60n > (((60n) - 0) + 50n) ? 60n : (((60n) - 0) + 50n)) * ((W2) / (1)))) + ((((1) / 2) - floor((1) / 2) != 0) ? ((100n > (((60n) - 0) + 80n) ? 100n : (((60n) - 0) + 80n)) * ((W2) / (1))) : 0)) / 1 / (((W2) / (1)) * (1) * ((W2) / (1)) * (1)) \
         nrs=(((W2) / (1)) < 119.5n) ? ((((50n > (((60n) - 0) + 60n) ? 50n : (((60n) - 0) + 60n)) * 120n) + (((W2) / (1)) * 50n)) + (floor(((1) - 1) / 2.0) * (((((60n) - 0) + 60n) * 120n) + (((W2) / (1)) * 100n))) + ((((1) / 2) - floor((1) / 2) == 0) ? (((50n > (((60n) - 0) + 60n) ? 50n : (((60n) - 0) + 60n)) * 120n) + (((W2) / (1)) * 50n)) : 0)) / 1 : (((100n > (((60n) - 0) + 80n) ? 100n : (((60n) - 0) + 80n)) * ((W2) / (1))) + (floor(((1) - 1) / 2.0) * ((60n > (((60n) - 0) + 50n) ? 60n : (((60n) - 0) + 50n)) * ((W2) / (1)))) + ((((1) / 2) - floor((1) / 2) == 0) ? ((100n > (((60n) - 0) + 80n) ? 100n : (((60n) - 0) + 80n)) * ((W2) / (1))) : 0)) / 1 / (((W2) / (1)) * (1) * ((W2) / (1)) * (1)) \
         sa=(((W2) / (1)) < 119.5n) ? (50n > (((60n) - 0) + 60n) ? 50n : (((60n) - 0) + 60n)) + 5e-08 : (100n > (((60n) - 0) + 80n) ? 100n : (((60n) - 0) + 80n)) \
         sb=(((W2) / (1)) < 119.5n) ? (50n > (((60n) - 0) + 60n) ? 50n : (((60n) - 0) + 60n)) + 5e-08 : (100n > (((60n) - 0) + 80n) ? 100n : (((60n) - 0) + 80n)) \
         sd=(((W2) / (1)) < 119.5n) ? (((60n) - 0) + 60n) + (2*5e-08) : (60n > (((60n) - 0) + 50n) ? 60n : (((60n) - 0) + 50n)) \