// Generated for: spectre
// Generated on: Apr  4 18:52:12 2023
// Design library name: TIATest
// Design cell name: V2
// Design view name: schematic
simulator lang=spectre
global 0
//parameters R=1K L=180n W1=10u W5=2u W6=2.6u W2=0.9*W1 W3=2*W1 W4=0.9*W3
include "./params.scs"
include "/ubc/ece/data/cmc2/kits/GPDK45/gpdk045_v_6_0/gpdk045/../models/spectre/gpdk045.scs" section=mc

// Library name: TIATest
// Cell name: V2
// View name: schematic
NM3 (net013 net7 0 0) g45n1svt w=(W6) l=L nf=ceil(((W6) - 5p) / (10u)) as=(((W6) / (ceil(((W6) - 5p) / (10u)))) < 119.5n) ? ((((50n > (((60n) - 0) + 60n) ? 50n : (((60n) - 0) + 60n)) * 120n) + (((W6) / (ceil(((W6) - 5p) / (10u)))) * 50n)) + (floor(((ceil(((W6) - 5p) / (10u))) - 1) / 2.0) * (((((60n) - 0) + 60n) * 120n) + (((W6) / (ceil(((W6) - 5p) / (10u)))) * 100n))) + ((((ceil(((W6) - 5p) / (10u))) / 2) - floor((ceil(((W6) - 5p) / (10u))) / 2) == 0) ? (((50n > (((60n) - 0) + 60n) ? 50n : (((60n) - 0) + 60n)) * 120n) + (((W6) / (ceil(((W6) - 5p) / (10u)))) * 50n)) : 0)) / 1 : (((100n > (((60n) - 0) + 80n) ? 100n : (((60n) - 0) + 80n)) * ((W6) / (ceil(((W6) - 5p) / (10u))))) + (floor(((ceil(((W6) - 5p) / (10u))) - 1) / 2.0) * ((60n > (((60n) - 0) + 50n) ? 60n : (((60n) - 0) + 50n)) * ((W6) / (ceil(((W6) - 5p) / (10u)))))) + ((((ceil(((W6) - 5p) / (10u))) / 2) - floor((ceil(((W6) - 5p) / (10u))) / 2) == 0) ? ((100n > (((60n) - 0) + 80n) ? 100n : (((60n) - 0) + 80n)) * ((W6) / (ceil(((W6) - 5p) / (10u))))) : 0)) / 1 \
         ad=(((W6) / (ceil(((W6) - 5p) / (10u)))) < 119.5n) ? ((floor((ceil(((W6) - 5p) / (10u))) / 2.0) * (((((60n) - 0) + 60n) * 120n) + (((W6) / (ceil(((W6) - 5p) / (10u)))) * 100n))) + ((((ceil(((W6) - 5p) / (10u))) / 2) - floor((ceil(((W6) - 5p) / (10u))) / 2) != 0) ? (((50n > (((60n) - 0) + 60n) ? 50n : (((60n) - 0) + 60n)) * 120n) + (((W6) / (ceil(((W6) - 5p) / (10u)))) * 50n)) : 0)) / 1 : ((floor((ceil(((W6) - 5p) / (10u))) / 2.0) * ((60n > (((60n) - 0) + 50n) ? 60n : (((60n) - 0) + 50n)) * ((W6) / (ceil(((W6) - 5p) / (10u)))))) + ((((ceil(((W6) - 5p) / (10u))) / 2) - floor((ceil(((W6) - 5p) / (10u))) / 2) != 0) ? ((100n > (((60n) - 0) + 80n) ? 100n : (((60n) - 0) + 80n)) * ((W6) / (ceil(((W6) - 5p) / (10u))))) : 0)) / 1 \
         ps=(((W6) / (ceil(((W6) - 5p) / (10u)))) < 119.5n) ? (((2 * (50n > (((60n) - 0) + 60n) ? 50n : (((60n) - 0) + 60n))) + 340n) + (floor(((ceil(((W6) - 5p) / (10u))) - 1) / 2.0) * ((2 * (((60n) - 0) + 60n)) + 440n)) + ((((ceil(((W6) - 5p) / (10u))) / 2) - floor((ceil(((W6) - 5p) / (10u))) / 2) == 0) ? ((2 * (50n > (((60n) - 0) + 60n) ? 50n : (((60n) - 0) + 60n))) + 340n) : 0)) / 1 : (((2 * (100n > (((60n) - 0) + 80n) ? 100n : (((60n) - 0) + 80n))) + (2 * ((W6) / (ceil(((W6) - 5p) / (10u)))))) + (floor(((ceil(((W6) - 5p) / (10u))) - 1) / 2.0) * ((2 * (60n > (((60n) - 0) + 50n) ? 60n : (((60n) - 0) + 50n))) + (2 * ((W6) / (ceil(((W6) - 5p) / (10u))))))) + ((((ceil(((W6) - 5p) / (10u))) / 2) - floor((ceil(((W6) - 5p) / (10u))) / 2) == 0) ? ((2 * (100n > (((60n) - 0) + 80n) ? 100n : (((60n) - 0) + 80n))) + (2 * ((W6) / (ceil(((W6) - 5p) / (10u)))))) : 0)) / 1 \
         pd=(((W6) / (ceil(((W6) - 5p) / (10u)))) < 119.5n) ? ((floor((ceil(((W6) - 5p) / (10u))) / 2.0) * ((2 * (((60n) - 0) + 60n)) + 440n)) + ((((ceil(((W6) - 5p) / (10u))) / 2) - floor((ceil(((W6) - 5p) / (10u))) / 2) != 0) ? ((2 * (50n > (((60n) - 0) + 60n) ? 50n : (((60n) - 0) + 60n))) + 340n) : 0)) / 1 : ((floor((ceil(((W6) - 5p) / (10u))) / 2.0) * ((2 * (60n > (((60n) - 0) + 50n) ? 60n : (((60n) - 0) + 50n))) + (2 * ((W6) / (ceil(((W6) - 5p) / (10u))))))) + ((((ceil(((W6) - 5p) / (10u))) / 2) - floor((ceil(((W6) - 5p) / (10u))) / 2) != 0) ? ((2 * (100n > (((60n) - 0) + 80n) ? 100n : (((60n) - 0) + 80n))) + (2 * ((W6) / (ceil(((W6) - 5p) / (10u)))))) : 0)) / 1 \
         nrd=(((W6) / (ceil(((W6) - 5p) / (10u)))) < 119.5n) ? ((floor((ceil(((W6) - 5p) / (10u))) / 2.0) * (((((60n) - 0) + 60n) * 120n) + (((W6) / (ceil(((W6) - 5p) / (10u)))) * 100n))) + ((((ceil(((W6) - 5p) / (10u))) / 2) - floor((ceil(((W6) - 5p) / (10u))) / 2) != 0) ? (((50n > (((60n) - 0) + 60n) ? 50n : (((60n) - 0) + 60n)) * 120n) + (((W6) / (ceil(((W6) - 5p) / (10u)))) * 50n)) : 0)) / 1 : ((floor((ceil(((W6) - 5p) / (10u))) / 2.0) * ((60n > (((60n) - 0) + 50n) ? 60n : (((60n) - 0) + 50n)) * ((W6) / (ceil(((W6) - 5p) / (10u)))))) + ((((ceil(((W6) - 5p) / (10u))) / 2) - floor((ceil(((W6) - 5p) / (10u))) / 2) != 0) ? ((100n > (((60n) - 0) + 80n) ? 100n : (((60n) - 0) + 80n)) * ((W6) / (ceil(((W6) - 5p) / (10u))))) : 0)) / 1 / (((W6) / (ceil(((W6) - 5p) / (10u)))) * (ceil(((W6) - 5p) / (10u))) * ((W6) / (ceil(((W6) - 5p) / (10u)))) * (ceil(((W6) - 5p) / (10u)))) \
         nrs=(((W6) / (ceil(((W6) - 5p) / (10u)))) < 119.5n) ? ((((50n > (((60n) - 0) + 60n) ? 50n : (((60n) - 0) + 60n)) * 120n) + (((W6) / (ceil(((W6) - 5p) / (10u)))) * 50n)) + (floor(((ceil(((W6) - 5p) / (10u))) - 1) / 2.0) * (((((60n) - 0) + 60n) * 120n) + (((W6) / (ceil(((W6) - 5p) / (10u)))) * 100n))) + ((((ceil(((W6) - 5p) / (10u))) / 2) - floor((ceil(((W6) - 5p) / (10u))) / 2) == 0) ? (((50n > (((60n) - 0) + 60n) ? 50n : (((60n) - 0) + 60n)) * 120n) + (((W6) / (ceil(((W6) - 5p) / (10u)))) * 50n)) : 0)) / 1 : (((100n > (((60n) - 0) + 80n) ? 100n : (((60n) - 0) + 80n)) * ((W6) / (ceil(((W6) - 5p) / (10u))))) + (floor(((ceil(((W6) - 5p) / (10u))) - 1) / 2.0) * ((60n > (((60n) - 0) + 50n) ? 60n : (((60n) - 0) + 50n)) * ((W6) / (ceil(((W6) - 5p) / (10u)))))) + ((((ceil(((W6) - 5p) / (10u))) / 2) - floor((ceil(((W6) - 5p) / (10u))) / 2) == 0) ? ((100n > (((60n) - 0) + 80n) ? 100n : (((60n) - 0) + 80n)) * ((W6) / (ceil(((W6) - 5p) / (10u))))) : 0)) / 1 / (((W6) / (ceil(((W6) - 5p) / (10u)))) * (ceil(((W6) - 5p) / (10u))) * ((W6) / (ceil(((W6) - 5p) / (10u)))) * (ceil(((W6) - 5p) / (10u)))) \
         sa=(((W6) / (ceil(((W6) - 5p) / (10u)))) < 119.5n) ? (50n > (((60n) - 0) + 60n) ? 50n : (((60n) - 0) + 60n)) + 5e-08 : (100n > (((60n) - 0) + 80n) ? 100n : (((60n) - 0) + 80n)) \
         sb=(((W6) / (ceil(((W6) - 5p) / (10u)))) < 119.5n) ? (50n > (((60n) - 0) + 60n) ? 50n : (((60n) - 0) + 60n)) + 5e-08 : (100n > (((60n) - 0) + 80n) ? 100n : (((60n) - 0) + 80n)) \
         sd=(((W6) / (ceil(((W6) - 5p) / (10u)))) < 119.5n) ? (((60n) - 0) + 60n) + (2*5e-08) : (60n > (((60n) - 0) + 50n) ? 60n : (((60n) - 0) + 50n)) \
         sca=(( ((W6) / (ceil(((W6) - 5p) / (10u)))) * ( (((1u) * (1u) / ((((W6) / (ceil(((W6) - 5p) / (10u)))) < 119.5n) ? (50n > (((60n) - 0) + 60n) ? 50n : (((60n) - 0) + 60n)) + 5e-08 : (100n > (((60n) - 0) + 80n) ? 100n : (((60n) - 0) + 80n))+60n)) - ((1u) * (1u) / (((((W6) / (ceil(((W6) - 5p) / (10u)))) < 119.5n) ? (50n > (((60n) - 0) + 60n) ? 50n : (((60n) - 0) + 60n)) + 5e-08 : (100n > (((60n) - 0) + 80n) ? 100n : (((60n) - 0) + 80n))+60n)+L))) + ((1u) * (1u) / ((((W6) / (ceil(((W6) - 5p) / (10u)))) < 119.5n) ? (50n > (((60n) - 0) + 60n) ? 50n : (((60n) - 0) + 60n)) + 5e-08 : (100n > (((60n) - 0) + 80n) ? 100n : (((60n) - 0) + 80n))+60n)) - ((1u) * (1u)/ (((((W6) / (ceil(((W6) - 5p) / (10u)))) < 119.5n) ? (50n > (((60n) - 0) + 60n) ? 50n : (((60n) - 0) + 60n)) + 5e-08 : (100n > (((60n) - 0) + 80n) ? 100n : (((60n) - 0) + 80n))+60n)+L)))) + ( L * ( (((1u) * (1u) / (60n)) - ((1u) * (1u) / ((60n)+((W6) / (ceil(((W6) - 5p) / (10u))))))) + ((1u) * (1u) / (60n)) - ((1u) * (1u)/ ((60n)+((W6) / (ceil(((W6) - 5p) / (10u))))))))) / (((W6) / (ceil(((W6) - 5p) / (10u)))) * L) \
         scb=((((W6) / (ceil(((W6) - 5p) / (10u)))) * ((((((W6) / (ceil(((W6) - 5p) / (10u)))) < 119.5n) ? (50n > (((60n) - 0) + 60n) ? 50n : (((60n) - 0) + 60n)) + 5e-08 : (100n > (((60n) - 0) + 80n) ? 100n : (((60n) - 0) + 80n))+60n)/10 + (1u)/100)*exp(-10 * ((((W6) / (ceil(((W6) - 5p) / (10u)))) < 119.5n) ? (50n > (((60n) - 0) + 60n) ? 50n : (((60n) - 0) + 60n)) + 5e-08 : (100n > (((60n) - 0) + 80n) ? 100n : (((60n) - 0) + 80n))+60n) / (1u)) - ((((((W6) / (ceil(((W6) - 5p) / (10u)))) < 119.5n) ? (50n > (((60n) - 0) + 60n) ? 50n : (((60n) - 0) + 60n)) + 5e-08 : (100n > (((60n) - 0) + 80n) ? 100n : (((60n) - 0) + 80n))+60n)+L)/10 + (1u)/100)*exp(-10 * (((((W6) / (ceil(((W6) - 5p) / (10u)))) < 119.5n) ? (50n > (((60n) - 0) + 60n) ? 50n : (((60n) - 0) + 60n)) + 5e-08 : (100n > (((60n) - 0) + 80n) ? 100n : (((60n) - 0) + 80n))+60n)+L) / (1u)) + (((((W6) / (ceil(((W6) - 5p) / (10u)))) < 119.5n) ? (50n > (((60n) - 0) + 60n) ? 50n : (((60n) - 0) + 60n)) + 5e-08 : (100n > (((60n) - 0) + 80n) ? 100n : (((60n) - 0) + 80n))+60n)/10 + (1u)/100)*exp(-10 * ((((W6) / (ceil(((W6) - 5p) / (10u)))) < 119.5n) ? (50n > (((60n) - 0) + 60n) ? 50n : (((60n) - 0) + 60n)) + 5e-08 : (100n > (((60n) - 0) + 80n) ? 100n : (((60n) - 0) + 80n))+60n) / (1u)) - ((((((W6) / (ceil(((W6) - 5p) / (10u)))) < 119.5n) ? (50n > (((60n) - 0) + 60n) ? 50n : (((60n) - 0) + 60n)) + 5e-08 : (100n > (((60n) - 0) + 80n) ? 100n : (((60n) - 0) + 80n))+60n)+L)/10 + (1u)/100)*exp(-10 * (((((W6) / (ceil(((W6) - 5p) / (10u)))) < 119.5n) ? (50n > (((60n) - 0) + 60n) ? 50n : (((60n) - 0) + 60n)) + 5e-08 : (100n > (((60n) - 0) + 80n) ? 100n : (((60n) - 0) + 80n))+60n)+L) / (1u)))) + (L * (((60n)/10 + (1u)/100)*exp(-10 * (60n) / (1u)) - (((60n)+((W6) / (ceil(((W6) - 5p) / (10u)))))/10 + (1u)/100)*exp(-10 * ((60n)+((W6) / (ceil(((W6) - 5p) / (10u))))) / (1u)) + ((60n)/10 + (1u)/100)*exp(-10 * (60n) / (1u)) - (((60n)+((W6) / (ceil(((W6) - 5p) / (10u)))))/10 + (1u)/100)*exp(-10 * ((60n)+((W6) / (ceil(((W6) - 5p) / (10u))))) / (1u))))) / (((W6) / (ceil(((W6) - 5p) / (10u)))) * L) \
         scc=((((W6) / (ceil(((W6) - 5p) / (10u)))) * ((((((W6) / (ceil(((W6) - 5p) / (10u)))) < 119.5n) ? (50n > (((60n) - 0) + 60n) ? 50n : (((60n) - 0) + 60n)) + 5e-08 : (100n > (((60n) - 0) + 80n) ? 100n : (((60n) - 0) + 80n))+60n)/20 + (1u)/400)*exp(-20 * ((((W6) / (ceil(((W6) - 5p) / (10u)))) < 119.5n) ? (50n > (((60n) - 0) + 60n) ? 50n : (((60n) - 0) + 60n)) + 5e-08 : (100n > (((60n) - 0) + 80n) ? 100n : (((60n) - 0) + 80n))+60n) / (1u)) - ((((((W6) / (ceil(((W6) - 5p) / (10u)))) < 119.5n) ? (50n > (((60n) - 0) + 60n) ? 50n : (((60n) - 0) + 60n)) + 5e-08 : (100n > (((60n) - 0) + 80n) ? 100n : (((60n) - 0) + 80n))+60n)+L)/20 + (1u)/400)*exp(-20 * (((((W6) / (ceil(((W6) - 5p) / (10u)))) < 119.5n) ? (50n > (((60n) - 0) + 60n) ? 50n : (((60n) - 0) + 60n)) + 5e-08 : (100n > (((60n) - 0) + 80n) ? 100n : (((60n) - 0) + 80n))+60n)+L) / (1u)) + (((((W6) / (ceil(((W6) - 5p) / (10u)))) < 119.5n) ? (50n > (((60n) - 0) + 60n) ? 50n : (((60n) - 0) + 60n)) + 5e-08 : (100n > (((60n) - 0) + 80n) ? 100n : (((60n) - 0) + 80n))+60n)/20 + (1u)/400)*exp(-20 * ((((W6) / (ceil(((W6) - 5p) / (10u)))) < 119.5n) ? (50n > (((60n) - 0) + 60n) ? 50n : (((60n) - 0) + 60n)) + 5e-08 : (100n > (((60n) - 0) + 80n) ? 100n : (((60n) - 0) + 80n))+60n) / (1u)) - ((((((W6) / (ceil(((W6) - 5p) / (10u)))) < 119.5n) ? (50n > (((60n) - 0) + 60n) ? 50n : (((60n) - 0) + 60n)) + 5e-08 : (100n > (((60n) - 0) + 80n) ? 100n : (((60n) - 0) + 80n))+60n)+L)/20 + (1u)/400)*exp(-20 * (((((W6) / (ceil(((W6) - 5p) / (10u)))) < 119.5n) ? (50n > (((60n) - 0) + 60n) ? 50n : (((60n) - 0) + 60n)) + 5e-08 : (100n > (((60n) - 0) + 80n) ? 100n : (((60n) - 0) + 80n))+60n)+L) / (1u)))) + (L * (((60n)/20 + (1u)/400)*exp(-20 * (60n) / (1u)) - (((60n)+((W6) / (ceil(((W6) - 5p) / (10u)))))/20 + (1u)/400)*exp(-20 * ((60n)+((W6) / (ceil(((W6) - 5p) / (10u))))) / (1u)) + ((60n)/20 + (1u)/400)*exp(-20 * (60n) / (1u)) - (((60n)+((W6) / (ceil(((W6) - 5p) / (10u)))))/20 + (1u)/400)*exp(-20 * ((60n)+((W6) / (ceil(((W6) - 5p) / (10u))))) / (1u))))) / (((W6) / (ceil(((W6) - 5p) / (10u)))) * L) \
         m=(1)
NM1 (net7 net5 0 0) g45n1svt w=(W4) l=L nf=ceil(((W4) - 5p) / (10u)) as=(((W4) / (ceil(((W4) - 5p) / (10u)))) < 119.5n) ? ((((50n > (((60n) - 0) + 60n) ? 50n : (((60n) - 0) + 60n)) * 120n) + (((W4) / (ceil(((W4) - 5p) / (10u)))) * 50n)) + (floor(((ceil(((W4) - 5p) / (10u))) - 1) / 2.0) * (((((60n) - 0) + 60n) * 120n) + (((W4) / (ceil(((W4) - 5p) / (10u)))) * 100n))) + ((((ceil(((W4) - 5p) / (10u))) / 2) - floor((ceil(((W4) - 5p) / (10u))) / 2) == 0) ? (((50n > (((60n) - 0) + 60n) ? 50n : (((60n) - 0) + 60n)) * 120n) + (((W4) / (ceil(((W4) - 5p) / (10u)))) * 50n)) : 0)) / 1 : (((100n > (((60n) - 0) + 80n) ? 100n : (((60n) - 0) + 80n)) * ((W4) / (ceil(((W4) - 5p) / (10u))))) + (floor(((ceil(((W4) - 5p) / (10u))) - 1) / 2.0) * ((60n > (((60n) - 0) + 50n) ? 60n : (((60n) - 0) + 50n)) * ((W4) / (ceil(((W4) - 5p) / (10u)))))) + ((((ceil(((W4) - 5p) / (10u))) / 2) - floor((ceil(((W4) - 5p) / (10u))) / 2) == 0) ? ((100n > (((60n) - 0) + 80n) ? 100n : (((60n) - 0) + 80n)) * ((W4) / (ceil(((W4) - 5p) / (10u))))) : 0)) / 1 \
         ad=(((W4) / (ceil(((W4) - 5p) / (10u)))) < 119.5n) ? ((floor((ceil(((W4) - 5p) / (10u))) / 2.0) * (((((60n) - 0) + 60n) * 120n) + (((W4) / (ceil(((W4) - 5p) / (10u)))) * 100n))) + ((((ceil(((W4) - 5p) / (10u))) / 2) - floor((ceil(((W4) - 5p) / (10u))) / 2) != 0) ? (((50n > (((60n) - 0) + 60n) ? 50n : (((60n) - 0) + 60n)) * 120n) + (((W4) / (ceil(((W4) - 5p) / (10u)))) * 50n)) : 0)) / 1 : ((floor((ceil(((W4) - 5p) / (10u))) / 2.0) * ((60n > (((60n) - 0) + 50n) ? 60n : (((60n) - 0) + 50n)) * ((W4) / (ceil(((W4) - 5p) / (10u)))))) + ((((ceil(((W4) - 5p) / (10u))) / 2) - floor((ceil(((W4) - 5p) / (10u))) / 2) != 0) ? ((100n > (((60n) - 0) + 80n) ? 100n : (((60n) - 0) + 80n)) * ((W4) / (ceil(((W4) - 5p) / (10u))))) : 0)) / 1 \
         ps=(((W4) / (ceil(((W4) - 5p) / (10u)))) < 119.5n) ? (((2 * (50n > (((60n) - 0) + 60n) ? 50n : (((60n) - 0) + 60n))) + 340n) + (floor(((ceil(((W4) - 5p) / (10u))) - 1) / 2.0) * ((2 * (((60n) - 0) + 60n)) + 440n)) + ((((ceil(((W4) - 5p) / (10u))) / 2) - floor((ceil(((W4) - 5p) / (10u))) / 2) == 0) ? ((2 * (50n > (((60n) - 0) + 60n) ? 50n : (((60n) - 0) + 60n))) + 340n) : 0)) / 1 : (((2 * (100n > (((60n) - 0) + 80n) ? 100n : (((60n) - 0) + 80n))) + (2 * ((W4) / (ceil(((W4) - 5p) / (10u)))))) + (floor(((ceil(((W4) - 5p) / (10u))) - 1) / 2.0) * ((2 * (60n > (((60n) - 0) + 50n) ? 60n : (((60n) - 0) + 50n))) + (2 * ((W4) / (ceil(((W4) - 5p) / (10u))))))) + ((((ceil(((W4) - 5p) / (10u))) / 2) - floor((ceil(((W4) - 5p) / (10u))) / 2) == 0) ? ((2 * (100n > (((60n) - 0) + 80n) ? 100n : (((60n) - 0) + 80n))) + (2 * ((W4) / (ceil(((W4) - 5p) / (10u)))))) : 0)) / 1 \
         pd=(((W4) / (ceil(((W4) - 5p) / (10u)))) < 119.5n) ? ((floor((ceil(((W4) - 5p) / (10u))) / 2.0) * ((2 * (((60n) - 0) + 60n)) + 440n)) + ((((ceil(((W4) - 5p) / (10u))) / 2) - floor((ceil(((W4) - 5p) / (10u))) / 2) != 0) ? ((2 * (50n > (((60n) - 0) + 60n) ? 50n : (((60n) - 0) + 60n))) + 340n) : 0)) / 1 : ((floor((ceil(((W4) - 5p) / (10u))) / 2.0) * ((2 * (60n > (((60n) - 0) + 50n) ? 60n : (((60n) - 0) + 50n))) + (2 * ((W4) / (ceil(((W4) - 5p) / (10u))))))) + ((((ceil(((W4) - 5p) / (10u))) / 2) - floor((ceil(((W4) - 5p) / (10u))) / 2) != 0) ? ((2 * (100n > (((60n) - 0) + 80n) ? 100n : (((60n) - 0) + 80n))) + (2 * ((W4) / (ceil(((W4) - 5p) / (10u)))))) : 0)) / 1 \
         nrd=(((W4) / (ceil(((W4) - 5p) / (10u)))) < 119.5n) ? ((floor((ceil(((W4) - 5p) / (10u))) / 2.0) * (((((60n) - 0) + 60n) * 120n) + (((W4) / (ceil(((W4) - 5p) / (10u)))) * 100n))) + ((((ceil(((W4) - 5p) / (10u))) / 2) - floor((ceil(((W4) - 5p) / (10u))) / 2) != 0) ? (((50n > (((60n) - 0) + 60n) ? 50n : (((60n) - 0) + 60n)) * 120n) + (((W4) / (ceil(((W4) - 5p) / (10u)))) * 50n)) : 0)) / 1 : ((floor((ceil(((W4) - 5p) / (10u))) / 2.0) * ((60n > (((60n) - 0) + 50n) ? 60n : (((60n) - 0) + 50n)) * ((W4) / (ceil(((W4) - 5p) / (10u)))))) + ((((ceil(((W4) - 5p) / (10u))) / 2) - floor((ceil(((W4) - 5p) / (10u))) / 2) != 0) ? ((100n > (((60n) - 0) + 80n) ? 100n : (((60n) - 0) + 80n)) * ((W4) / (ceil(((W4) - 5p) / (10u))))) : 0)) / 1 / (((W4) / (ceil(((W4) - 5p) / (10u)))) * (ceil(((W4) - 5p) / (10u))) * ((W4) / (ceil(((W4) - 5p) / (10u)))) * (ceil(((W4) - 5p) / (10u)))) \
         nrs=(((W4) / (ceil(((W4) - 5p) / (10u)))) < 119.5n) ? ((((50n > (((60n) - 0) + 60n) ? 50n : (((60n) - 0) + 60n)) * 120n) + (((W4) / (ceil(((W4) - 5p) / (10u)))) * 50n)) + (floor(((ceil(((W4) - 5p) / (10u))) - 1) / 2.0) * (((((60n) - 0) + 60n) * 120n) + (((W4) / (ceil(((W4) - 5p) / (10u)))) * 100n))) + ((((ceil(((W4) - 5p) / (10u))) / 2) - floor((ceil(((W4) - 5p) / (10u))) / 2) == 0) ? (((50n > (((60n) - 0) + 60n) ? 50n : (((60n) - 0) + 60n)) * 120n) + (((W4) / (ceil(((W4) - 5p) / (10u)))) * 50n)) : 0)) / 1 : (((100n > (((60n) - 0) + 80n) ? 100n : (((60n) - 0) + 80n)) * ((W4) / (ceil(((W4) - 5p) / (10u))))) + (floor(((ceil(((W4) - 5p) / (10u))) - 1) / 2.0) * ((60n > (((60n) - 0) + 50n) ? 60n : (((60n) - 0) + 50n)) * ((W4) / (ceil(((W4) - 5p) / (10u)))))) + ((((ceil(((W4) - 5p) / (10u))) / 2) - floor((ceil(((W4) - 5p) / (10u))) / 2) == 0) ? ((100n > (((60n) - 0) + 80n) ? 100n : (((60n) - 0) + 80n)) * ((W4) / (ceil(((W4) - 5p) / (10u))))) : 0)) / 1 / (((W4) / (ceil(((W4) - 5p) / (10u)))) * (ceil(((W4) - 5p) / (10u))) * ((W4) / (ceil(((W4) - 5p) / (10u)))) * (ceil(((W4) - 5p) / (10u)))) \
         sa=(((W4) / (ceil(((W4) - 5p) / (10u)))) < 119.5n) ? (50n > (((60n) - 0) + 60n) ? 50n : (((60n) - 0) + 60n)) + 5e-08 : (100n > (((60n) - 0) + 80n) ? 100n : (((60n) - 0) + 80n)) \
         sb=(((W4) / (ceil(((W4) - 5p) / (10u)))) < 119.5n) ? (50n > (((60n) - 0) + 60n) ? 50n : (((60n) - 0) + 60n)) + 5e-08 : (100n > (((60n) - 0) + 80n) ? 100n : (((60n) - 0) + 80n)) \
         sd=(((W4) / (ceil(((W4) - 5p) / (10u)))) < 119.5n) ? (((60n) - 0) + 60n) + (2*5e-08) : (60n > (((60n) - 0) + 50n) ? 60n : (((60n) - 0) + 50n)) \
         sca=(( ((W4) / (ceil(((W4) - 5p) / (10u)))) * ( (((1u) * (1u) / ((((W4) / (ceil(((W4) - 5p) / (10u)))) < 119.5n) ? (50n > (((60n) - 0) + 60n) ? 50n : (((60n) - 0) + 60n)) + 5e-08 : (100n > (((60n) - 0) + 80n) ? 100n : (((60n) - 0) + 80n))+60n)) - ((1u) * (1u) / (((((W4) / (ceil(((W4) - 5p) / (10u)))) < 119.5n) ? (50n > (((60n) - 0) + 60n) ? 50n : (((60n) - 0) + 60n)) + 5e-08 : (100n > (((60n) - 0) + 80n) ? 100n : (((60n) - 0) + 80n))+60n)+(45n)))) + ((1u) * (1u) / ((((W4) / (ceil(((W4) - 5p) / (10u)))) < 119.5n) ? (50n > (((60n) - 0) + 60n) ? 50n : (((60n) - 0) + 60n)) + 5e-08 : (100n > (((60n) - 0) + 80n) ? 100n : (((60n) - 0) + 80n))+60n)) - ((1u) * (1u)/ (((((W4) / (ceil(((W4) - 5p) / (10u)))) < 119.5n) ? (50n > (((60n) - 0) + 60n) ? 50n : (((60n) - 0) + 60n)) + 5e-08 : (100n > (((60n) - 0) + 80n) ? 100n : (((60n) - 0) + 80n))+60n)+(45n))))) + ( (45n) * ( (((1u) * (1u) / (60n)) - ((1u) * (1u) / ((60n)+((W4) / (ceil(((W4) - 5p) / (10u))))))) + ((1u) * (1u) / (60n)) - ((1u) * (1u)/ ((60n)+((W4) / (ceil(((W4) - 5p) / (10u))))))))) / (((W4) / (ceil(((W4) - 5p) / (10u)))) * (45n)) \
         scb=((((W4) / (ceil(((W4) - 5p) / (10u)))) * ((((((W4) / (ceil(((W4) - 5p) / (10u)))) < 119.5n) ? (50n > (((60n) - 0) + 60n) ? 50n : (((60n) - 0) + 60n)) + 5e-08 : (100n > (((60n) - 0) + 80n) ? 100n : (((60n) - 0) + 80n))+60n)/10 + (1u)/100)*exp(-10 * ((((W4) / (ceil(((W4) - 5p) / (10u)))) < 119.5n) ? (50n > (((60n) - 0) + 60n) ? 50n : (((60n) - 0) + 60n)) + 5e-08 : (100n > (((60n) - 0) + 80n) ? 100n : (((60n) - 0) + 80n))+60n) / (1u)) - ((((((W4) / (ceil(((W4) - 5p) / (10u)))) < 119.5n) ? (50n > (((60n) - 0) + 60n) ? 50n : (((60n) - 0) + 60n)) + 5e-08 : (100n > (((60n) - 0) + 80n) ? 100n : (((60n) - 0) + 80n))+60n)+(45n))/10 + (1u)/100)*exp(-10 * (((((W4) / (ceil(((W4) - 5p) / (10u)))) < 119.5n) ? (50n > (((60n) - 0) + 60n) ? 50n : (((60n) - 0) + 60n)) + 5e-08 : (100n > (((60n) - 0) + 80n) ? 100n : (((60n) - 0) + 80n))+60n)+(45n)) / (1u)) + (((((W4) / (ceil(((W4) - 5p) / (10u)))) < 119.5n) ? (50n > (((60n) - 0) + 60n) ? 50n : (((60n) - 0) + 60n)) + 5e-08 : (100n > (((60n) - 0) + 80n) ? 100n : (((60n) - 0) + 80n))+60n)/10 + (1u)/100)*exp(-10 * ((((W4) / (ceil(((W4) - 5p) / (10u)))) < 119.5n) ? (50n > (((60n) - 0) + 60n) ? 50n : (((60n) - 0) + 60n)) + 5e-08 : (100n > (((60n) - 0) + 80n) ? 100n : (((60n) - 0) + 80n))+60n) / (1u)) - ((((((W4) / (ceil(((W4) - 5p) / (10u)))) < 119.5n) ? (50n > (((60n) - 0) + 60n) ? 50n : (((60n) - 0) + 60n)) + 5e-08 : (100n > (((60n) - 0) + 80n) ? 100n : (((60n) - 0) + 80n))+60n)+(45n))/10 + (1u)/100)*exp(-10 * (((((W4) / (ceil(((W4) - 5p) / (10u)))) < 119.5n) ? (50n > (((60n) - 0) + 60n) ? 50n : (((60n) - 0) + 60n)) + 5e-08 : (100n > (((60n) - 0) + 80n) ? 100n : (((60n) - 0) + 80n))+60n)+(45n)) / (1u)))) + ((45n) * (((60n)/10 + (1u)/100)*exp(-10 * (60n) / (1u)) - (((60n)+((W4) / (ceil(((W4) - 5p) / (10u)))))/10 + (1u)/100)*exp(-10 * ((60n)+((W4) / (ceil(((W4) - 5p) / (10u))))) / (1u)) + ((60n)/10 + (1u)/100)*exp(-10 * (60n) / (1u)) - (((60n)+((W4) / (ceil(((W4) - 5p) / (10u)))))/10 + (1u)/100)*exp(-10 * ((60n)+((W4) / (ceil(((W4) - 5p) / (10u))))) / (1u))))) / (((W4) / (ceil(((W4) - 5p) / (10u)))) * (45n)) \
         scc=((((W4) / (ceil(((W4) - 5p) / (10u)))) * ((((((W4) / (ceil(((W4) - 5p) / (10u)))) < 119.5n) ? (50n > (((60n) - 0) + 60n) ? 50n : (((60n) - 0) + 60n)) + 5e-08 : (100n > (((60n) - 0) + 80n) ? 100n : (((60n) - 0) + 80n))+60n)/20 + (1u)/400)*exp(-20 * ((((W4) / (ceil(((W4) - 5p) / (10u)))) < 119.5n) ? (50n > (((60n) - 0) + 60n) ? 50n : (((60n) - 0) + 60n)) + 5e-08 : (100n > (((60n) - 0) + 80n) ? 100n : (((60n) - 0) + 80n))+60n) / (1u)) - ((((((W4) / (ceil(((W4) - 5p) / (10u)))) < 119.5n) ? (50n > (((60n) - 0) + 60n) ? 50n : (((60n) - 0) + 60n)) + 5e-08 : (100n > (((60n) - 0) + 80n) ? 100n : (((60n) - 0) + 80n))+60n)+(45n))/20 + (1u)/400)*exp(-20 * (((((W4) / (ceil(((W4) - 5p) / (10u)))) < 119.5n) ? (50n > (((60n) - 0) + 60n) ? 50n : (((60n) - 0) + 60n)) + 5e-08 : (100n > (((60n) - 0) + 80n) ? 100n : (((60n) - 0) + 80n))+60n)+(45n)) / (1u)) + (((((W4) / (ceil(((W4) - 5p) / (10u)))) < 119.5n) ? (50n > (((60n) - 0) + 60n) ? 50n : (((60n) - 0) + 60n)) + 5e-08 : (100n > (((60n) - 0) + 80n) ? 100n : (((60n) - 0) + 80n))+60n)/20 + (1u)/400)*exp(-20 * ((((W4) / (ceil(((W4) - 5p) / (10u)))) < 119.5n) ? (50n > (((60n) - 0) + 60n) ? 50n : (((60n) - 0) + 60n)) + 5e-08 : (100n > (((60n) - 0) + 80n) ? 100n : (((60n) - 0) + 80n))+60n) / (1u)) - ((((((W4) / (ceil(((W4) - 5p) / (10u)))) < 119.5n) ? (50n > (((60n) - 0) + 60n) ? 50n : (((60n) - 0) + 60n)) + 5e-08 : (100n > (((60n) - 0) + 80n) ? 100n : (((60n) - 0) + 80n))+60n)+(45n))/20 + (1u)/400)*exp(-20 * (((((W4) / (ceil(((W4) - 5p) / (10u)))) < 119.5n) ? (50n > (((60n) - 0) + 60n) ? 50n : (((60n) - 0) + 60n)) + 5e-08 : (100n > (((60n) - 0) + 80n) ? 100n : (((60n) - 0) + 80n))+60n)+(45n)) / (1u)))) + ((45n) * (((60n)/20 + (1u)/400)*exp(-20 * (60n) / (1u)) - (((60n)+((W4) / (ceil(((W4) - 5p) / (10u)))))/20 + (1u)/400)*exp(-20 * ((60n)+((W4) / (ceil(((W4) - 5p) / (10u))))) / (1u)) + ((60n)/20 + (1u)/400)*exp(-20 * (60n) / (1u)) - (((60n)+((W4) / (ceil(((W4) - 5p) / (10u)))))/20 + (1u)/400)*exp(-20 * ((60n)+((W4) / (ceil(((W4) - 5p) / (10u))))) / (1u))))) / (((W4) / (ceil(((W4) - 5p) / (10u)))) * (45n)) \
         m=(1)
NM2 (net5 net5 0 0) g45n1svt w=(W1) l=L nf=ceil(((W1) - 5p) / (10u)) as=(((W1) / (ceil(((W1) - 5p) / (10u)))) < 119.5n) ? ((((50n > (((60n) - 0) + 60n) ? 50n : (((60n) - 0) + 60n)) * 120n) + (((W1) / (ceil(((W1) - 5p) / (10u)))) * 50n)) + (floor(((ceil(((W1) - 5p) / (10u))) - 1) / 2.0) * (((((60n) - 0) + 60n) * 120n) + (((W1) / (ceil(((W1) - 5p) / (10u)))) * 100n))) + ((((ceil(((W1) - 5p) / (10u))) / 2) - floor((ceil(((W1) - 5p) / (10u))) / 2) == 0) ? (((50n > (((60n) - 0) + 60n) ? 50n : (((60n) - 0) + 60n)) * 120n) + (((W1) / (ceil(((W1) - 5p) / (10u)))) * 50n)) : 0)) / 1 : (((100n > (((60n) - 0) + 80n) ? 100n : (((60n) - 0) + 80n)) * ((W1) / (ceil(((W1) - 5p) / (10u))))) + (floor(((ceil(((W1) - 5p) / (10u))) - 1) / 2.0) * ((60n > (((60n) - 0) + 50n) ? 60n : (((60n) - 0) + 50n)) * ((W1) / (ceil(((W1) - 5p) / (10u)))))) + ((((ceil(((W1) - 5p) / (10u))) / 2) - floor((ceil(((W1) - 5p) / (10u))) / 2) == 0) ? ((100n > (((60n) - 0) + 80n) ? 100n : (((60n) - 0) + 80n)) * ((W1) / (ceil(((W1) - 5p) / (10u))))) : 0)) / 1 \
         ad=(((W1) / (ceil(((W1) - 5p) / (10u)))) < 119.5n) ? ((floor((ceil(((W1) - 5p) / (10u))) / 2.0) * (((((60n) - 0) + 60n) * 120n) + (((W1) / (ceil(((W1) - 5p) / (10u)))) * 100n))) + ((((ceil(((W1) - 5p) / (10u))) / 2) - floor((ceil(((W1) - 5p) / (10u))) / 2) != 0) ? (((50n > (((60n) - 0) + 60n) ? 50n : (((60n) - 0) + 60n)) * 120n) + (((W1) / (ceil(((W1) - 5p) / (10u)))) * 50n)) : 0)) / 1 : ((floor((ceil(((W1) - 5p) / (10u))) / 2.0) * ((60n > (((60n) - 0) + 50n) ? 60n : (((60n) - 0) + 50n)) * ((W1) / (ceil(((W1) - 5p) / (10u)))))) + ((((ceil(((W1) - 5p) / (10u))) / 2) - floor((ceil(((W1) - 5p) / (10u))) / 2) != 0) ? ((100n > (((60n) - 0) + 80n) ? 100n : (((60n) - 0) + 80n)) * ((W1) / (ceil(((W1) - 5p) / (10u))))) : 0)) / 1 \
         ps=(((W1) / (ceil(((W1) - 5p) / (10u)))) < 119.5n) ? (((2 * (50n > (((60n) - 0) + 60n) ? 50n : (((60n) - 0) + 60n))) + 340n) + (floor(((ceil(((W1) - 5p) / (10u))) - 1) / 2.0) * ((2 * (((60n) - 0) + 60n)) + 440n)) + ((((ceil(((W1) - 5p) / (10u))) / 2) - floor((ceil(((W1) - 5p) / (10u))) / 2) == 0) ? ((2 * (50n > (((60n) - 0) + 60n) ? 50n : (((60n) - 0) + 60n))) + 340n) : 0)) / 1 : (((2 * (100n > (((60n) - 0) + 80n) ? 100n : (((60n) - 0) + 80n))) + (2 * ((W1) / (ceil(((W1) - 5p) / (10u)))))) + (floor(((ceil(((W1) - 5p) / (10u))) - 1) / 2.0) * ((2 * (60n > (((60n) - 0) + 50n) ? 60n : (((60n) - 0) + 50n))) + (2 * ((W1) / (ceil(((W1) - 5p) / (10u))))))) + ((((ceil(((W1) - 5p) / (10u))) / 2) - floor((ceil(((W1) - 5p) / (10u))) / 2) == 0) ? ((2 * (100n > (((60n) - 0) + 80n) ? 100n : (((60n) - 0) + 80n))) + (2 * ((W1) / (ceil(((W1) - 5p) / (10u)))))) : 0)) / 1 \
         pd=(((W1) / (ceil(((W1) - 5p) / (10u)))) < 119.5n) ? ((floor((ceil(((W1) - 5p) / (10u))) / 2.0) * ((2 * (((60n) - 0) + 60n)) + 440n)) + ((((ceil(((W1) - 5p) / (10u))) / 2) - floor((ceil(((W1) - 5p) / (10u))) / 2) != 0) ? ((2 * (50n > (((60n) - 0) + 60n) ? 50n : (((60n) - 0) + 60n))) + 340n) : 0)) / 1 : ((floor((ceil(((W1) - 5p) / (10u))) / 2.0) * ((2 * (60n > (((60n) - 0) + 50n) ? 60n : (((60n) - 0) + 50n))) + (2 * ((W1) / (ceil(((W1) - 5p) / (10u))))))) + ((((ceil(((W1) - 5p) / (10u))) / 2) - floor((ceil(((W1) - 5p) / (10u))) / 2) != 0) ? ((2 * (100n > (((60n) - 0) + 80n) ? 100n : (((60n) - 0) + 80n))) + (2 * ((W1) / (ceil(((W1) - 5p) / (10u)))))) : 0)) / 1 \
         nrd=(((W1) / (ceil(((W1) - 5p) / (10u)))) < 119.5n) ? ((floor((ceil(((W1) - 5p) / (10u))) / 2.0) * (((((60n) - 0) + 60n) * 120n) + (((W1) / (ceil(((W1) - 5p) / (10u)))) * 100n))) + ((((ceil(((W1) - 5p) / (10u))) / 2) - floor((ceil(((W1) - 5p) / (10u))) / 2) != 0) ? (((50n > (((60n) - 0) + 60n) ? 50n : (((60n) - 0) + 60n)) * 120n) + (((W1) / (ceil(((W1) - 5p) / (10u)))) * 50n)) : 0)) / 1 : ((floor((ceil(((W1) - 5p) / (10u))) / 2.0) * ((60n > (((60n) - 0) + 50n) ? 60n : (((60n) - 0) + 50n)) * ((W1) / (ceil(((W1) - 5p) / (10u)))))) + ((((ceil(((W1) - 5p) / (10u))) / 2) - floor((ceil(((W1) - 5p) / (10u))) / 2) != 0) ? ((100n > (((60n) - 0) + 80n) ? 100n : (((60n) - 0) + 80n)) * ((W1) / (ceil(((W1) - 5p) / (10u))))) : 0)) / 1 / (((W1) / (ceil(((W1) - 5p) / (10u)))) * (ceil(((W1) - 5p) / (10u))) * ((W1) / (ceil(((W1) - 5p) / (10u)))) * (ceil(((W1) - 5p) / (10u)))) \
         nrs=(((W1) / (ceil(((W1) - 5p) / (10u)))) < 119.5n) ? ((((50n > (((60n) - 0) + 60n) ? 50n : (((60n) - 0) + 60n)) * 120n) + (((W1) / (ceil(((W1) - 5p) / (10u)))) * 50n)) + (floor(((ceil(((W1) - 5p) / (10u))) - 1) / 2.0) * (((((60n) - 0) + 60n) * 120n) + (((W1) / (ceil(((W1) - 5p) / (10u)))) * 100n))) + ((((ceil(((W1) - 5p) / (10u))) / 2) - floor((ceil(((W1) - 5p) / (10u))) / 2) == 0) ? (((50n > (((60n) - 0) + 60n) ? 50n : (((60n) - 0) + 60n)) * 120n) + (((W1) / (ceil(((W1) - 5p) / (10u)))) * 50n)) : 0)) / 1 : (((100n > (((60n) - 0) + 80n) ? 100n : (((60n) - 0) + 80n)) * ((W1) / (ceil(((W1) - 5p) / (10u))))) + (floor(((ceil(((W1) - 5p) / (10u))) - 1) / 2.0) * ((60n > (((60n) - 0) + 50n) ? 60n : (((60n) - 0) + 50n)) * ((W1) / (ceil(((W1) - 5p) / (10u)))))) + ((((ceil(((W1) - 5p) / (10u))) / 2) - floor((ceil(((W1) - 5p) / (10u))) / 2) == 0) ? ((100n > (((60n) - 0) + 80n) ? 100n : (((60n) - 0) + 80n)) * ((W1) / (ceil(((W1) - 5p) / (10u))))) : 0)) / 1 / (((W1) / (ceil(((W1) - 5p) / (10u)))) * (ceil(((W1) - 5p) / (10u))) * ((W1) / (ceil(((W1) - 5p) / (10u)))) * (ceil(((W1) - 5p) / (10u)))) \
         sa=(((W1) / (ceil(((W1) - 5p) / (10u)))) < 119.5n) ? (50n > (((60n) - 0) + 60n) ? 50n : (((60n) - 0) + 60n)) + 5e-08 : (100n > (((60n) - 0) + 80n) ? 100n : (((60n) - 0) + 80n)) \
         sb=(((W1) / (ceil(((W1) - 5p) / (10u)))) < 119.5n) ? (50n > (((60n) - 0) + 60n) ? 50n : (((60n) - 0) + 60n)) + 5e-08 : (100n > (((60n) - 0) + 80n) ? 100n : (((60n) - 0) + 80n)) \
         sd=(((W1) / (ceil(((W1) - 5p) / (10u)))) < 119.5n) ? (((60n) - 0) + 60n) + (2*5e-08) : (60n > (((60n) - 0) + 50n) ? 60n : (((60n) - 0) + 50n)) \
         sca=(( ((W1) / (ceil(((W1) - 5p) / (10u)))) * ( (((1u) * (1u) / ((((W1) / (ceil(((W1) - 5p) / (10u)))) < 119.5n) ? (50n > (((60n) - 0) + 60n) ? 50n : (((60n) - 0) + 60n)) + 5e-08 : (100n > (((60n) - 0) + 80n) ? 100n : (((60n) - 0) + 80n))+60n)) - ((1u) * (1u) / (((((W1) / (ceil(((W1) - 5p) / (10u)))) < 119.5n) ? (50n > (((60n) - 0) + 60n) ? 50n : (((60n) - 0) + 60n)) + 5e-08 : (100n > (((60n) - 0) + 80n) ? 100n : (((60n) - 0) + 80n))+60n)+L))) + ((1u) * (1u) / ((((W1) / (ceil(((W1) - 5p) / (10u)))) < 119.5n) ? (50n > (((60n) - 0) + 60n) ? 50n : (((60n) - 0) + 60n)) + 5e-08 : (100n > (((60n) - 0) + 80n) ? 100n : (((60n) - 0) + 80n))+60n)) - ((1u) * (1u)/ (((((W1) / (ceil(((W1) - 5p) / (10u)))) < 119.5n) ? (50n > (((60n) - 0) + 60n) ? 50n : (((60n) - 0) + 60n)) + 5e-08 : (100n > (((60n) - 0) + 80n) ? 100n : (((60n) - 0) + 80n))+60n)+L)))) + ( L * ( (((1u) * (1u) / (60n)) - ((1u) * (1u) / ((60n)+((W1) / (ceil(((W1) - 5p) / (10u))))))) + ((1u) * (1u) / (60n)) - ((1u) * (1u)/ ((60n)+((W1) / (ceil(((W1) - 5p) / (10u))))))))) / (((W1) / (ceil(((W1) - 5p) / (10u)))) * L) \